
#======================================================================
# CRYSTAL DATA
#----------------------------------------------------------------------
data_VESTA_phase_1

_chemical_name_common                  'Er-1846_a.res in P2(1)/n'
_cell_length_a                         17.5310(9)
_cell_length_b                         6.9040(4)
_cell_length_c                         25.4779(14)
_cell_angle_alpha                      90.000000
_cell_angle_beta                       96.566(2)
_cell_angle_gamma                      90.000000
_cell_volume                           3063.466062
_space_group_name_H-M_alt              'P 21/n'
_space_group_IT_number                 14

loop_
_space_group_symop_operation_xyz
   'x, y, z'
   '-x, -y, -z'
   '-x+1/2, y+1/2, -z+1/2'
   'x+1/2, -y+1/2, z+1/2'

loop_
   _atom_site_label
   _atom_site_occupancy
   _atom_site_fract_x
   _atom_site_fract_y
   _atom_site_fract_z
   _atom_site_adp_type
   _atom_site_U_iso_or_equiv
   _atom_site_type_symbol
   LA01       1.0     0.377242     0.224940     0.616461    Uani  0.012511 La
   SE02       1.0     0.115849    -0.172275     0.469214    Uani  0.015408 Se
   SE03       1.0     0.888503     0.678610     0.481040    Uani  0.016155 Se
   O004       1.0     0.453466     0.134323     0.451333    Uani  0.017233 O
   H004       1.0     0.502878     0.176169     0.471028    Uiso  0.025850 H
   O005       1.0     0.528647     0.092748     0.386860    Uani  0.017267 O
   O006       1.0     0.348881     0.521262     0.559947    Uani  0.018417 O
   O007       1.0     1.239659     0.818444     0.558813    Uani  0.017861 O
   O008       1.0     1.297343     0.932232     0.635585    Uani  0.016769 O
   O009       1.0     0.491089     0.305450     0.572990    Uani  0.015639 O
   N1         1.0     0.963523     0.706554     0.534918    Uani  0.017469 N
   O00A       1.0    -0.233477    -0.317961     0.391581    Uani  0.019648 O
   O00B       1.0     0.559578     0.303029     0.504382    Uani  0.018702 O
   O00C       1.0     0.444141     0.135398     0.707908    Uani  0.022208 O
   H00C       1.0     0.433770     0.170537     0.720497    Uiso  0.033313 H
   O00D       1.0     0.441680     0.533457     0.663852    Uani  0.021709 O
   H00D       1.0     0.429961     0.606529     0.651796    Uiso  0.032564 H
   O00E       1.0     0.340102     0.078041     0.526240    Uani  0.021412 O
   H00E       1.0     0.327917     0.012758     0.528274    Uiso  0.032118 H
   O00F       1.0    -0.297159    -0.349803     0.311354    Uani  0.019905 O
   N00G       1.0     0.189206    -0.120808     0.428101    Uani  0.013175 N
   N00H       1.0     0.731066     0.551374     0.612589    Uani  0.011991 N
   N00I       1.0     0.815759     0.633809     0.522438    Uani  0.015158 N
   N00J       1.0     1.049338     0.746450     0.641242    Uani  0.013859 N
   N00K       1.0     0.693849     0.537517     0.657180    Uani  0.015991 N
   N00L       1.0    -0.041271    -0.240389     0.309317    Uani  0.013001 N
   N2         1.0     0.043404    -0.205821     0.414886    Uani  0.017137 N
   N3         1.0     0.277250    -0.048611     0.339830    Uani  0.013284 N
   N4         1.0     0.317024    -0.058396     0.296619    Uani  0.018657 N
   N5         1.0    -0.076623    -0.264344     0.258539    Uani  0.026735 N
   N6         1.0     1.082642     0.785408     0.691087    Uani  0.019396 N
   C00S       1.0     0.550840     0.343769     0.552118    Uani  0.015674 C
   C00T       1.0    -0.235249    -0.327260     0.341143    Uani  0.014510 C
   C00U       1.0     0.322756     0.006873     0.383976    Uani  0.017434 C
   H00U       1.0     0.307597     0.024633     0.418276    Uiso  0.020921 H
   C00V       1.0     0.464163     0.090308     0.403399    Uani  0.013559 C
   C00W       1.0     1.169333     0.813676     0.632604    Uani  0.014392 C
   C00X       1.0     0.848051     0.640728     0.571829    Uani  0.011352 C
   C00Y       1.0     0.394883     0.032197     0.369277    Uani  0.013404 C
   C00Z       1.0     0.685736     0.489082     0.568511    Uani  0.014865 C
   H00Z       1.0     0.699447     0.485018     0.533517    Uiso  0.017838 H
   C010       1.0     0.624665     0.469399     0.639372    Uani  0.016204 C
   H010       1.0     0.585206     0.447562     0.661322    Uiso  0.019445 H
   C011       1.0     0.387618    -0.012182     0.314976    Uani  0.016568 C
   H011       1.0     0.429105    -0.009001     0.294046    Uiso  0.019882 H
   C012       1.0    -0.162408    -0.304723     0.317472    Uani  0.013277 C
   C013       1.0    -0.092842    -0.265788     0.345017    Uani  0.018678 C
   H013       1.0    -0.082147    -0.257759     0.382357    Uiso  0.022413 H
   C014       1.0     1.241037     0.857745     0.608019    Uani  0.014572 C
   C015       1.0     0.157568    -0.127771     0.378586    Uani  0.011216 C
   C016       1.0     0.808581     0.606509     0.618021    Uani  0.013531 C
   C017       1.0     0.616018     0.433000     0.584525    Uani  0.013870 C
   C018       1.0     1.155897     0.826989     0.685905    Uani  0.016221 C
   H018       1.0     1.193586     0.860775     0.714224    Uiso  0.019465 H
   C019       1.0     0.076150    -0.176863     0.370499    Uani  0.013169 C
   C01A       1.0     0.970236     0.700432     0.632524    Uani  0.015905 C
   C01B       1.0     0.848011     0.625594     0.666601    Uani  0.013400 C
   H01B       1.0     0.822080     0.604919     0.696884    Uiso  0.016080 H
   C01C       1.0     1.100594     0.761304     0.605663    Uani  0.015153 C
   H01C       1.0     1.090640     0.739353     0.568704    Uiso  0.018183 H
   C01D       1.0     0.927055     0.675660     0.673547    Uani  0.015207 C
   H01D       1.0     0.951304     0.692908     0.708526    Uiso  0.018248 H
   C01E       1.0     0.930641     0.682688     0.578993    Uani  0.013632 C
   C01F       1.0     0.197946    -0.095636     0.333291    Uani  0.011486 C
   C01G       1.0     0.037639    -0.191523     0.318094    Uani  0.012580 C
   C01H       1.0     0.079412    -0.158675     0.276679    Uani  0.014580 C
   H01H       1.0     0.054368    -0.168619     0.241693    Uiso  0.017496 H
   C01I       1.0     0.158737    -0.110309     0.283993    Uani  0.016114 C
   H01I       1.0     0.184993    -0.087739     0.253953    Uiso  0.019337 H
   C01J       1.0    -0.149692    -0.301413     0.264620    Uani  0.026214 C
   H01J       1.0    -0.188622    -0.323089     0.236108    Uiso  0.031457 H

loop_
   _atom_site_aniso_label
   _atom_site_aniso_U_11
   _atom_site_aniso_U_22
   _atom_site_aniso_U_33
   _atom_site_aniso_U_12
   _atom_site_aniso_U_13
   _atom_site_aniso_U_23
   LA01	 0.00820  0.01724  0.01243 -0.00196  0.00263 -0.00031
   SE02	 0.01233  0.02143  0.01253 -0.00125  0.00170  0.00014
   SE03	 0.01229  0.02476  0.01154 -0.00316  0.00190 -0.00040
   O004	 0.01156  0.02785  0.01199 -0.00230  0.00005 -0.00307
   O005	 0.01627  0.01928  0.01653 -0.00255  0.00308 -0.00043
   O006	 0.01523  0.02283  0.01785  0.00098  0.00474  0.00702
   O007	 0.00693  0.02650  0.02076 -0.00327  0.00420 -0.00417
   O008	 0.00840  0.02291  0.01832 -0.00309 -0.00140  0.00315
   O009	 0.00675  0.02021  0.02160 -0.00362  0.00871 -0.00297
   N1	 0.01339  0.02428  0.01486 -0.00251  0.00215  0.00036
   O00A	 0.01581  0.02962  0.01334 -0.00141  0.00092  0.00129
   O00B	 0.01318  0.02980  0.01378 -0.00486  0.00437 -0.00145
   O00C	 0.01966  0.03153  0.01585  0.00763  0.00382 -0.00053
   O00D	 0.02244  0.02173  0.02069 -0.00351  0.00131 -0.00354
   O00E	 0.01894  0.02140  0.02308 -0.00449 -0.00112 -0.00733
   O00F	 0.00442  0.03612  0.01951 -0.00049  0.00281 -0.00773
   N00G	 0.00759  0.01904  0.01414 -0.00146  0.00662 -0.00199
   N00H	 0.01153  0.01322  0.01143  0.00162  0.00221 -0.00067
   N00I	 0.01225  0.01657  0.01636 -0.00399  0.00037 -0.00308
   N00J	 0.00469  0.02082  0.01619 -0.00116  0.00173  0.00030
   N00K	 0.00958  0.02268  0.01708  0.00113  0.00742 -0.00096
   N00L	 0.01257  0.01697  0.00960 -0.00388  0.00186 -0.00303
   N2	 0.01772  0.02200  0.01218 -0.00318  0.00382  0.00044
   N3	 0.01036  0.01935  0.01034 -0.00065  0.00204  0.00077
   N4	 0.01443  0.02609  0.01572 -0.00069  0.00288 -0.00298
   N5	 0.00382  0.06342  0.01338 -0.01442  0.00277 -0.00955
   N6	 0.01618  0.02662  0.01539 -0.00394  0.00182  0.00023
   C00S	 0.01801  0.01621  0.01353 -0.00113  0.00495  0.00020
   C00T	 0.01278  0.01331  0.01720 -0.00474  0.00068 -0.00488
   C00U	 0.01270  0.01915  0.01986 -0.00365 -0.00069  0.00179
   C00V	 0.01043  0.01362  0.01707  0.00082  0.00348  0.00143
   C00W	 0.00943  0.01746  0.01725 -0.00409  0.00568 -0.00111
   C00X	 0.00708  0.01379  0.01392 -0.00077  0.00437  0.00016
   C00Y	 0.01145  0.01601  0.01333  0.00159  0.00391  0.00539
   C00Z	 0.00504  0.02307  0.01719 -0.00244  0.00431 -0.00252
   C010	 0.01545  0.01502  0.01832 -0.00135  0.00270  0.00131
   C011	 0.00738  0.02549  0.01768 -0.00370  0.00508 -0.00349
   C012	 0.00325  0.01790  0.01840  0.00169  0.00003 -0.00133
   C013	 0.02237  0.01810  0.01592 -0.00083  0.00373  0.00409
   C014	 0.00720  0.01804  0.01850 -0.00379  0.00157  0.00176
   C015	 0.01053  0.01609  0.00728  0.00309  0.00210  0.00420
   C016	 0.00835  0.01633  0.01641  0.00331  0.00356  0.00012
   C017	 0.01412  0.01393  0.01402 -0.00149  0.00360 -0.00335
   C018	 0.00732  0.02259  0.01815 -0.00277 -0.00114 -0.00066
   C019	 0.01337  0.01307  0.01331 -0.00422  0.00258 -0.00437
   C01A	 0.01771  0.01674  0.01339 -0.00485  0.00232  0.00132
   C01B	 0.00724  0.02314  0.00998 -0.00004  0.00168  0.00070
   C01C	 0.00595  0.02339  0.01628  0.00000  0.00197  0.00289
   C01D	 0.01451  0.01896  0.01251 -0.00080  0.00310 -0.00023
   C01E	 0.01023  0.01555  0.01547 -0.00095  0.00300 -0.00149
   C01F	 0.00511  0.01634  0.01335  0.00055  0.00253  0.00084
   C01G	 0.00358  0.01912  0.01542 -0.00150  0.00272 -0.00168
   C01H	 0.00866  0.02027  0.01588  0.00020  0.00602  0.00149
   C01I	 0.01573  0.01822  0.01406 -0.00716  0.00027 -0.00118
   C01J	 0.01090  0.04672  0.02087 -0.00675  0.00116 -0.00965
