
#======================================================================
# CRYSTAL DATA
#----------------------------------------------------------------------
data_VESTA_phase_1

_chemical_name_common                  'Er-1834_a.res in P-1'
_cell_length_a                         9.4298(4)
_cell_length_b                         13.1973(5)
_cell_length_c                         14.1016(7)
_cell_angle_alpha                      68.8530(10)
_cell_angle_beta                       85.959(2)
_cell_angle_gamma                      70.761(2)
_cell_volume                           1542.990520
_space_group_name_H-M_alt              'P -1'
_space_group_IT_number                 2

loop_
_space_group_symop_operation_xyz
   'x, y, z'
   '-x, -y, -z'

loop_
   _atom_site_label
   _atom_site_occupancy
   _atom_site_fract_x
   _atom_site_fract_y
   _atom_site_fract_z
   _atom_site_adp_type
   _atom_site_U_iso_or_equiv
   _atom_site_type_symbol
   SE01       1.0     0.169767     0.467606     0.101913    Uani  0.019915 Se
   ZN02       1.0     0.790050     0.531820     0.532360    Uani  0.027131 Zn
   S003       1.0     1.092736     0.218150     1.032221    Uani  0.023043 S
   O1         1.0    -0.064791     0.614165    -0.467195    Uani  0.028327 O
   O2         1.0     0.583584     0.630821     0.562803    Uani  0.037034 O
   O004       1.0     0.758462     0.592304     0.384205    Uani  0.023452 O
   O005       1.0     0.611346     0.483832     0.410378    Uani  0.027250 O
   O006       1.0    -0.117258     0.545124    -0.306365    Uani  0.030964 O
   N009       1.0     0.519800     0.649213     0.094696    Uani  0.015554 N
   N00A       1.0     0.188837     0.677599    -0.242964    Uani  0.017381 N
   N00B       1.0     0.306401     0.525721     0.120184    Uani  0.017247 N
   N00C       1.0     0.806761     0.237191     0.776370    Uani  0.019156 N
   N00D       1.0     0.795256     0.374996     0.630656    Uani  0.024226 N
   N00E       1.0     0.158313     0.534464    -0.032753    Uani  0.019531 N
   N00F       1.0     0.841558    -0.025063     1.198589    Uani  0.020394 N
   N2         1.0     0.663940     0.954943     0.620034    Uani  0.069736 N
   N3         1.0     0.177507     0.765871    -0.334169    Uani  0.026842 N
   N4         1.0     0.604741     0.721737     0.075431    Uani  0.020506 N
   N5         1.0     1.007826     0.243420     0.926160    Uani  0.021439 N
   N6         1.0     1.019121     0.129286     1.111278    Uani  0.021654 N
   N7         1.0     0.730860     0.216182     0.708613    Uani  0.025195 N
   N8         1.0     0.802624    -0.123744     1.229953    Uani  0.025851 N
   C00N       1.0     0.108819     0.610790    -0.246708    Uani  0.016547 C
   H00N       1.0     0.098811     0.546046    -0.191916    Uiso  0.019857 H
   C00O       1.0     0.439795     0.653795     0.010203    Uani  0.014026 C
   C00P       1.0    -0.051869     0.600755    -0.372649    Uani  0.023481 C
   C00Q       1.0     0.527457     0.583228     0.193246    Uani  0.015485 C
   H00Q       1.0     0.478639     0.527395     0.222502    Uiso  0.018582 H
   C00R       1.0     0.252453     0.595361    -0.057200    Uani  0.015708 C
   C00S       1.0     0.735932     0.099187     0.920207    Uani  0.019342 C
   H00S       1.0     0.672793     0.092012     0.875077    Uiso  0.023211 H
   C00T       1.0     0.619062     0.611291     0.244197    Uani  0.017272 C
   C00U       1.0     0.335659     0.589735     0.028711    Uani  0.015057 C
   C00V       1.0     0.273252     0.666637    -0.158999    Uani  0.015379 C
   C00W       1.0     0.663528     0.557656     0.353796    Uani  0.020563 C
   C00X       1.0     0.045064     0.652370    -0.342606    Uani  0.019611 C
   C00Y       1.0     0.663195     0.697243     0.167137    Uani  0.021899 C
   H00Y       1.0     0.727842     0.733620     0.179661    Uiso  0.026278 H
   C00Z       1.0     0.374297     0.723873    -0.171130    Uani  0.019140 C
   H00Z       1.0     0.390403     0.769654    -0.237800    Uiso  0.022968 H
   C010       1.0     0.818992     0.171265     0.881747    Uani  0.020372 C
   C011       1.0     0.456294     0.716794    -0.086451    Uani  0.017689 C
   H011       1.0     0.525313     0.758211    -0.098778    Uiso  0.021227 H
   C012       1.0     0.844434     0.332145     0.727167    Uani  0.019652 C
   H012       1.0     0.898124     0.363583     0.757155    Uiso  0.023582 H
   C013       1.0     0.914758     0.180477     0.949775    Uani  0.017893 C
   C014       1.0     0.741880     0.034776     1.026114    Uani  0.020361 C
   H014       1.0     0.681743    -0.013752     1.050282    Uiso  0.024434 H
   C015       1.0     0.831946    -0.163160     1.328370    Uani  0.027599 C
   H015       1.0     0.818999    -0.233351     1.371768    Uiso  0.033118 H
   C016       1.0     0.832417     0.041171     1.094041    Uani  0.018610 C
   C017       1.0     0.091683     0.748610    -0.394494    Uani  0.024423 C
   H017       1.0     0.065207     0.795564    -0.464055    Uiso  0.029307 H
   C018       1.0     0.920697     0.115134     1.056843    Uani  0.017013 C
   O019       1.0     0.584461     0.798230     0.638982    Uani  0.077246 O
   N1         1.0     0.881578    -0.098679     1.364875    Uani  0.030060 N
   C01A       1.0     0.727265     0.300968     0.622738    Uani  0.027035 C
   C01B       1.0     0.887553    -0.013068     1.281565    Uani  0.029446 C
   H01B       1.0     0.919699     0.048586     1.279930    Uiso  0.035335 H
   C01D       1.0     0.655383     0.862127     0.593515    Uani  0.058898 C
   H01D       1.0     0.708354     0.849378     0.536815    Uiso  0.070677 H
   C01E       1.0     0.749166     1.026749     0.558226    Uani  0.064747 C
   H01C       1.0     0.787989     1.002028     0.501035    Uiso  0.097120 H
   H01E       1.0     0.833390     1.019564     0.599861    Uiso  0.097120 H
   H01F       1.0     0.683607     1.107090     0.532091    Uiso  0.097120 H
   C01F       1.0     0.588598     0.976668     0.703094    Uani  0.208829 C
   H01A       1.0     0.485068     0.977025     0.699220    Uiso  0.313244 H
   H01G       1.0     0.587406     1.051640     0.701935    Uiso  0.313244 H
   H01H       1.0     0.640441     0.916586     0.766424    Uiso  0.313244 H

loop_
   _atom_site_aniso_label
   _atom_site_aniso_U_11
   _atom_site_aniso_U_22
   _atom_site_aniso_U_33
   _atom_site_aniso_U_12
   _atom_site_aniso_U_13
   _atom_site_aniso_U_23
   SE01	 0.02554  0.02571  0.01358 -0.01743  0.00032 -0.00452
   ZN02	 0.03866  0.03274  0.01465 -0.02671 -0.00614  0.00117
   S003	 0.02551  0.02632  0.02025 -0.01443  0.00013 -0.00612
   O1	 0.04028  0.03600  0.01626 -0.02821 -0.00736 -0.00213
   O2	 0.03275  0.04873  0.03182 -0.02394  0.00166 -0.00733
   O004	 0.02641  0.03145  0.01652 -0.01682 -0.00413 -0.00556
   O005	 0.03086  0.03444  0.01579 -0.01878 -0.00345 -0.00007
   O006	 0.03914  0.03985  0.02171 -0.02994 -0.00346 -0.00361
   N009	 0.01554  0.02003  0.01372 -0.00852 -0.00180 -0.00612
   N00A	 0.02106  0.02122  0.01277 -0.01386 -0.00036 -0.00289
   N00B	 0.02028  0.02022  0.01263 -0.01177 -0.00281 -0.00214
   N00C	 0.02554  0.02086  0.01372 -0.01090  0.00173 -0.00634
   N00D	 0.03244  0.02369  0.01531 -0.01405 -0.00263 -0.00046
   N00E	 0.02279  0.02257  0.01594 -0.01233 -0.00104 -0.00516
   N00F	 0.02831  0.02009  0.01480 -0.01485  0.00181 -0.00240
   N2	 0.07009  0.06461  0.07217 -0.03204  0.03394 -0.01829
   N3	 0.03990  0.02935  0.01514 -0.02471 -0.00393  0.00071
   N4	 0.02451  0.02855  0.01631 -0.01798  0.00067 -0.00849
   N5	 0.02197  0.02280  0.02058 -0.01001  0.00145 -0.00657
   N6	 0.02373  0.02339  0.01603 -0.00640 -0.00266 -0.00549
   N7	 0.03795  0.02393  0.01743 -0.01461 -0.00556 -0.00630
   N8	 0.04252  0.01829  0.02066 -0.02002  0.00305 -0.00258
   C00N	 0.02214  0.02310  0.01000 -0.01424  0.00328 -0.00656
   C00O	 0.01211  0.01878  0.01449 -0.00639  0.00288 -0.00890
   C00P	 0.02768  0.02693  0.01513 -0.01306 -0.00543 -0.00180
   C00Q	 0.01623  0.02010  0.01264 -0.00854  0.00244 -0.00668
   C00R	 0.01844  0.01904  0.01237 -0.00721 -0.00014 -0.00757
   C00S	 0.02406  0.01900  0.01327 -0.00653 -0.00242 -0.00368
   C00T	 0.01649  0.02316  0.01496 -0.00814 -0.00183 -0.00802
   C00U	 0.01617  0.01523  0.01107 -0.00384  0.00105 -0.00286
   C00V	 0.01911  0.01989  0.00997 -0.00843 -0.00138 -0.00632
   C00W	 0.01723  0.02337  0.02023 -0.00587 -0.00163 -0.00704
   C00X	 0.02584  0.02283  0.01384 -0.01380  0.00093 -0.00545
   C00Y	 0.02061  0.02964  0.02461 -0.01423  0.00257 -0.01496
   C00Z	 0.02064  0.02204  0.01460 -0.00932  0.00102 -0.00430
   C010	 0.02283  0.01947  0.01848 -0.00800  0.00077 -0.00537
   C011	 0.01813  0.02063  0.02002 -0.00998 -0.00045 -0.01022
   C012	 0.02637  0.02355  0.00977 -0.01250  0.00045 -0.00279
   C013	 0.01884  0.01714  0.01370 -0.00330  0.00235 -0.00357
   C014	 0.02573  0.01656  0.01816 -0.00976  0.00241 -0.00315
   C015	 0.03834  0.02426  0.02139 -0.01462  0.00570 -0.00632
   C016	 0.02220  0.01872  0.01626 -0.00853  0.00204 -0.00632
   C017	 0.03211  0.03160  0.01247 -0.02194 -0.00452  0.00024
   C018	 0.01705  0.01389  0.01856 -0.00364  0.00310 -0.00573
   O019	 0.08095  0.06508  0.10647 -0.05136  0.04286 -0.03644
   N1	 0.04494  0.02768  0.02152 -0.01959  0.00077 -0.00616
   C01A	 0.03263  0.02584  0.02294 -0.01232 -0.00091 -0.00615
   C01B	 0.04853  0.02955  0.01378 -0.01923 -0.00247 -0.00517
   C01D	 0.07415  0.06363  0.05594 -0.03727  0.01838 -0.03019
   C01E	 0.09616  0.05770  0.06302 -0.05388  0.03546 -0.02714
   C01F	 0.30851  0.35474  0.21481 -0.29477  0.20919 -0.25568
