
#======================================================================
# CRYSTAL DATA
#----------------------------------------------------------------------
data_VESTA_phase_1

_chemical_name_common                  'OAV-501_a.res in P-1'
_cell_length_a                         8.66230(10)
_cell_length_b                         10.0367(2)
_cell_length_c                         14.0897(2)
_cell_angle_alpha                      98.6200(10)
_cell_angle_beta                       101.3400(10)
_cell_angle_gamma                      110.8510(10)
_cell_volume                           1089.604860
_space_group_name_H-M_alt              'P -1'
_space_group_IT_number                 2

loop_
_space_group_symop_operation_xyz
   'x, y, z'
   '-x, -y, -z'

loop_
   _atom_site_label
   _atom_site_occupancy
   _atom_site_fract_x
   _atom_site_fract_y
   _atom_site_fract_z
   _atom_site_adp_type
   _atom_site_U_iso_or_equiv
   _atom_site_type_symbol
   N2         1.0     1.367037     0.654797     1.152951    Uani  0.017032 N
   H2         1.0     1.341713     0.654075     1.210424    Uiso  0.020438 H
   O3         1.0     0.810932     0.244985     0.381033    Uani  0.015482 O
   H3A        1.0     0.802602     0.200947     0.415247    Uiso  0.023223 H
   H1C        1.0     0.880100     0.243416     0.346705    Uiso -1.500000 H
   N3         1.0     1.256853     0.562511     0.896502    Uani  0.012641 N
   O4         1.0     0.297141     0.423372     0.424655    Uani  0.014046 O
   O5         1.0     0.811157     0.700583     0.433606    Uani  0.018646 O
   H5A        1.0     0.888054     0.729449     0.414847    Uiso  0.027969 H
   H1D        1.0     0.798631     0.753879     0.473707    Uiso -1.500000 H
   N4         1.0     1.346149     0.596455     0.828516    Uani  0.014092 N
   O1         1.0     0.776456     0.352473     0.678530    Uani  0.014751 O
   EU1        1.0     0.749214     0.451609     0.438141    Uani  0.007830 Eu
   O2         1.0     0.575984     0.247288     0.492817    Uani  0.016597 O
   H2A        1.0     0.613901     0.261874     0.556748    Uiso  0.024896 H
   H1         1.0     0.478954     0.202872     0.475309    Uiso -1.500000 H
   N1         1.0     1.249188     0.585476     1.063465    Uani  0.016536 N
   N5         1.0     1.232334     0.543522     0.741509    Uani  0.012238 N
   N6         1.0    -0.082821     0.184152     0.167964    Uani  0.015464 N
   O6         1.0     0.476881     0.395008     0.337699    Uani  0.014922 O
   O7         1.0     0.951375     0.441453     0.583439    Uani  0.011038 O
   O8         1.0     0.058566    -0.125412     0.359368    Uani  0.020447 O
   O9         1.0     0.177446    -0.023465     0.517507    Uani  0.027906 O
   N8         1.0    -0.094746     0.105951    -0.152796    Uani  0.019974 N
   N7         1.0     0.018947     0.201371     0.105282    Uani  0.012581 N
   N9         1.0     0.018040     0.245641     0.258236    Uani  0.013904 N
   O10        1.0     0.225033     0.106116     0.409077    Uani  0.020937 O
   N10        1.0     0.028115     0.170740    -0.064145    Uani  0.018949 N
   N11        1.0     0.154609    -0.015424     0.429248    Uani  0.014740 N
   C1         1.0     1.342459     0.614873     0.999395    Uani  0.013050 C
   C2         1.0     1.526723     0.724826     1.144868    Uani  0.016781 C
   C3         1.0     1.516168     0.701009     1.044122    Uani  0.018076 C
   H3         1.0     1.605673     0.735099     1.012879    Uiso  0.021691 H
   C4         1.0     1.072531     0.476077     0.753580    Uani  0.010994 C
   C5         1.0     1.087242     0.487572     0.853694    Uani  0.013055 C
   H5         1.0     0.998732     0.451261     0.885274    Uiso  0.015666 H
   C6         1.0     1.677663     0.807994     1.233069    Uani  0.027144 C
   H6A        1.0     1.748095     0.750912     1.243352    Uiso  0.040716 H
   H6B        1.0     1.637862     0.825411     1.292389    Uiso  0.040716 H
   H6C        1.0     1.746224     0.902315     1.221430    Uiso  0.040716 H
   C7         1.0     0.329843     0.379396     0.346088    Uani  0.009746 C
   C8         1.0     0.184935     0.301737     0.254749    Uani  0.010416 C
   C9         1.0     0.186541     0.273164     0.156089    Uani  0.012551 C
   H9         1.0     0.283306     0.298209     0.129831    Uiso  0.015061 H
   C10        1.0     0.920276     0.417159     0.666783    Uani  0.010651 C
   C11        1.0    -0.062393     0.147797     0.001857    Uani  0.013618 C
   C12        1.0    -0.239280     0.070924    -0.041257    Uani  0.017790 C
   H12        1.0    -0.327518     0.042537    -0.008448    Uiso  0.021348 H
   C13        1.0    -0.255454     0.046108    -0.142196    Uani  0.017784 C
   C14        1.0    -0.410869    -0.030614    -0.228821    Uani  0.027427 C
   H14A       1.0    -0.408585     0.030604    -0.277001    Uiso  0.041140 H
   H14B       1.0    -0.514176    -0.048083    -0.205522    Uiso  0.041140 H
   H14C       1.0    -0.411858    -0.124723    -0.260800    Uiso  0.041140 H

loop_
   _atom_site_aniso_label
   _atom_site_aniso_U_11
   _atom_site_aniso_U_22
   _atom_site_aniso_U_33
   _atom_site_aniso_U_12
   _atom_site_aniso_U_13
   _atom_site_aniso_U_23
   N2	 0.01492  0.02556  0.00610  0.00354  0.00238  0.00273
   O3	 0.01924  0.01756  0.01449  0.00929  0.00976  0.00596
   N3	 0.00907  0.02006  0.00680  0.00361  0.00209  0.00304
   O4	 0.01522  0.01909  0.00860  0.00802  0.00432  0.00108
   O5	 0.02373  0.01463  0.01995  0.00615  0.01337  0.00482
   N4	 0.01018  0.02306  0.00672  0.00375  0.00304  0.00308
   O1	 0.00961  0.02241  0.00989  0.00273  0.00387  0.00463
   EU1	 0.00574  0.01146  0.00501  0.00226  0.00150  0.00114
   O2	 0.01131  0.02142  0.01128 -0.00035  0.00287  0.00474
   N1	 0.01268  0.02442  0.00723  0.00189  0.00266  0.00242
   N5	 0.00869  0.01888  0.00726  0.00344  0.00220  0.00278
   N6	 0.01019  0.02257  0.01046  0.00444  0.00251  0.00041
   O6	 0.00815  0.02483  0.00991  0.00549  0.00227  0.00167
   O7	 0.00910  0.01752  0.00656  0.00461  0.00293  0.00372
   O8	 0.02118  0.01606  0.01580 -0.00043  0.00490 -0.00027
   O9	 0.04439  0.02056  0.01387  0.00950  0.00244  0.00579
   N8	 0.02033  0.02426  0.00896  0.00508 -0.00046  0.00099
   N7	 0.01009  0.01703  0.00810  0.00415  0.00120  0.00053
   N9	 0.00895  0.02009  0.01012  0.00419  0.00231  0.00061
   O10	 0.01977  0.01488  0.02306  0.00046  0.00421  0.00810
   N10	 0.01683  0.02438  0.00882  0.00314  0.00096  0.00036
   N11	 0.01426  0.01327  0.01505  0.00417  0.00288  0.00338
   C1	 0.01079  0.02015  0.00587  0.00424  0.00136  0.00236
   C2	 0.01236  0.02531  0.00932  0.00563  0.00063  0.00221
   C3	 0.00993  0.03001  0.00954  0.00392  0.00226  0.00166
   C4	 0.00873  0.01613  0.00687  0.00344  0.00216  0.00286
   C5	 0.00945  0.01909  0.00818  0.00302  0.00224  0.00309
   C6	 0.01746  0.04104  0.01287  0.00690 -0.00370 -0.00031
   C7	 0.00914  0.01226  0.00675  0.00390  0.00104  0.00150
   C8	 0.00787  0.01442  0.00813  0.00395  0.00226  0.00140
   C9	 0.00919  0.01778  0.00870  0.00411  0.00202  0.00114
   C10	 0.00927  0.01488  0.00737  0.00446  0.00207  0.00252
   C11	 0.01286  0.01600  0.00857  0.00504 -0.00048 -0.00069
   C12	 0.01207  0.02307  0.01296  0.00500 -0.00025 -0.00106
   C13	 0.01735  0.01894  0.01281  0.00749 -0.00184 -0.00130
   C14	 0.02295  0.03251  0.01689  0.01168 -0.00770 -0.00701
