# generated using pymatgen
data_AgHC3NO2
_symmetry_space_group_name_H-M   'P 1'
_cell_length_a   7.75824224
_cell_length_b   7.75941863
_cell_length_c   11.71785780
_cell_angle_alpha   90.00016542
_cell_angle_beta   89.99997938
_cell_angle_gamma   89.96490724
_symmetry_Int_Tables_number   1
_chemical_formula_structural   AgHC3NO2
_chemical_formula_sum   'Ag8 H8 C24 N8 O16'
_cell_volume   705.40845467
_cell_formula_units_Z   8
loop_
 _symmetry_equiv_pos_site_id
 _symmetry_equiv_pos_as_xyz
  1  'x, y, z'
loop_
 _atom_site_type_symbol
 _atom_site_label
 _atom_site_symmetry_multiplicity
 _atom_site_fract_x
 _atom_site_fract_y
 _atom_site_fract_z
 _atom_site_occupancy
 _atom_site_pbe_bader_charge
 _atom_site_pbe_bader_spin_density
 _atom_site_pbe_cm5_charge
 _atom_site_pbe_ddec_charge
 _atom_site_pbe_ddec_spin_density
 _atom_site_pbe_ddec_sum_bond_order
 _atom_site_pbe_magmom
Ag  Ag0  1  0.12034262  0.91402582  0.10840411  1  0.638615  0  0.464777  0.447557  0  1.895081  0
Ag  Ag1  1  0.87965188  0.08597420  0.60840608  1  0.638603  0  0.464755  0.447528  0  1.895106  0
Ag  Ag2  1  0.08723937  0.11960163  0.85896450  1  0.638602  0  0.464796  0.447939  0  1.894483  0
Ag  Ag3  1  0.91276471  0.88039684  0.35896544  1  0.638611  0  0.464784  0.447944  0  1.894484  0
Ag  Ag4  1  0.47189470  0.57220188  0.19970953  1  0.633961  0  0.440093  0.450809  0  1.799517  0
Ag  Ag5  1  0.52810387  0.42779500  0.69970741  1  0.63401  0  0.440081  0.450795  0  1.799525  0
Ag  Ag6  1  0.42922321  0.47154395  0.94970383  1  0.632597  0  0.439728  0.449944  0  1.798707  0
Ag  Ag7  1  0.57077849  0.52845525  0.44970211  1  0.632492  0  0.439735  0.449957  0  1.798695  0
H  H8  1  0.93285789  0.27751008  0.39526105  1  0.156624  0  0.121174  0.111969  0  1.016226  0
H  H9  1  0.06714498  0.72248817  0.89526151  1  0.156581  0  0.121176  0.111954  0  1.016273  0
H  H10  1  0.72348124  0.93425164  0.14552316  1  0.168165  0  0.121354  0.112598  0  1.017025  0
H  H11  1  0.27651851  0.06575072  0.64552500  1  0.168137  0  0.121366  0.112611  0  1.016978  0
H  H12  1  0.16088738  0.50600957  0.42314799  1  0.177345  0  0.122264  0.114309  0  1.025459  0
H  H13  1  0.83911555  0.49398980  0.92315183  1  0.177321  0  0.122257  0.114315  0  1.025442  0
H  H14  1  0.49487460  0.16229073  0.17386728  1  0.185484  0  0.122315  0.114531  0  1.024168  0
H  H15  1  0.50512520  0.83770888  0.67386445  1  0.185471  0  0.122326  0.114561  0  1.024121  0
C  C16  1  0.32895539  0.85592238  0.34120400  1  1.64734  0  0.19579  0.53841  0  4.280331  0
C  C17  1  0.67104607  0.14408136  0.84120750  1  1.647388  0  0.195806  0.538358  0  4.280393  0
C  C18  1  0.14477755  0.33007757  0.09106711  1  1.653626  0  0.195551  0.537052  0  4.281158  0
C  C19  1  0.85521950  0.66992771  0.59106524  1  1.653579  0  0.195524  0.53703  0  4.281332  0
C  C20  1  0.28214160  0.03842539  0.37564026  1  0.50254  0  0.13133  0.087669  0  3.878607  0
C  C21  1  0.71785993  0.96157685  0.87564305  1  0.50259  0  0.131348  0.087698  0  3.878544  0
C  C22  1  0.96224549  0.28345446  0.12557182  1  0.552426  0  0.131768  0.088795  0  3.876081  0
C  C23  1  0.03775550  0.71654803  0.62557058  1  0.552422  0  0.131768  0.088795  0  3.876117  0
C  C24  1  0.06958087  0.24540360  0.39397720  1  0.511482  0  0.048506  0.06068  0  3.897787  0
C  C25  1  0.93042199  0.75459723  0.89398005  1  0.51155  0  0.048518  0.060733  0  3.897848  0
C  C26  1  0.75545882  0.07095075  0.14424705  1  0.493384  0  0.048425  0.059419  0  3.898514  0
C  C27  1  0.24454092  0.92905034  0.64424518  1  0.493406  0  0.048369  0.059306  0  3.898481  0
C  C28  1  0.19414461  0.37034366  0.41472960  1  0.468398  0  0.054485  0.069242  0  3.877473  0
C  C29  1  0.80585959  0.62965576  0.91473352  1  0.468317  0  0.054461  0.069248  0  3.877467  0
C  C30  1  0.63047759  0.19553208  0.16519932  1  0.470839  0  0.054179  0.069102  0  3.877947  0
C  C31  1  0.36952477  0.80446759  0.66519818  1  0.470832  0  0.054235  0.069174  0  3.877899  0
C  C32  1  0.40523989  0.16111995  0.41010421  1  0.549643  0  0.120748  0.055637  0  3.890118  0
C  C33  1  0.59476301  0.83887821  0.91010808  1  0.549687  0  0.120737  0.055672  0  3.890047  0
C  C34  1  0.83948520  0.40658719  0.16013750  1  0.46901  0  0.1208  0.054989  0  3.890838  0
C  C35  1  0.16051200  0.59341380  0.66013357  1  0.469006  0  0.120719  0.054999  0  3.890858  0
C  C36  1  0.58761960  0.10516516  0.43586457  1  1.609115  0  0.193771  0.520563  0  4.253659  0
C  C37  1  0.41238077  0.89483284  0.93586566  1  1.609323  0  0.193777  0.520562  0  4.25368  0
C  C38  1  0.89509053  0.58904553  0.18566576  1  1.629821  0  0.193536  0.520231  0  4.254384  0
C  C39  1  0.10490673  0.41095531  0.68566328  1  1.629821  0  0.19359  0.520282  0  4.254283  0
N  N40  1  0.11336601  0.08051297  0.37357188  1  -1.170125  0  -0.330242  -0.234685  0  3.642747  0
N  N41  1  0.88663552  0.91948670  0.87357245  1  -1.170112  0  -0.33021  -0.234691  0  3.64267  0
N  N42  1  0.92025231  0.11470573  0.12353509  1  -1.170121  0  -0.329984  -0.233469  0  3.640751  0
N  N43  1  0.07974867  0.88529807  0.62353489  1  -1.170167  0  -0.329919  -0.233383  0  3.640616  0
N  N44  1  0.36018382  0.32666214  0.42671874  1  -1.165675  0  -0.308626  -0.191096  0  3.559516  0
N  N45  1  0.63981911  0.67333591  0.92672061  1  -1.165674  0  -0.308633  -0.191133  0  3.559419  0
N  N46  1  0.67400344  0.36155418  0.17695284  1  -1.16669  0  -0.308867  -0.191424  0  3.560515  0
N  N47  1  0.32599766  0.63844800  0.67695152  1  -1.166631  0  -0.30888  -0.191508  0  3.560499  0
O  O48  1  0.37074886  0.83896435  0.23582032  1  -1.102458  0  -0.321038  -0.483524  0  2.373815  0
O  O49  1  0.62925108  0.16104004  0.73582314  1  -1.102396  0  -0.321059  -0.483558  0  2.373864  0
O  O50  1  0.16188788  0.37137733  0.98561725  1  -1.105899  0  -0.321049  -0.483346  0  2.372715  0
O  O51  1  0.83811131  0.62862552  0.48561837  1  -1.105762  0  -0.321043  -0.483371  0  2.372875  0
O  O52  1  0.31355153  0.73874056  0.41399338  1  -1.172672  0  -0.307194  -0.529177  0  2.320596  0
O  O53  1  0.68644622  0.26126531  0.91399763  1  -1.172865  0  -0.307216  -0.529145  0  2.320635  0
O  O54  1  0.26185368  0.31482572  0.16397108  1  -1.173698  0  -0.306925  -0.528868  0  2.31979  0
O  O55  1  0.73814610  0.68517783  0.66397034  1  -1.173723  0  -0.30691  -0.528838  0  2.319826  0
O  O56  1  0.62322110  0.95071579  0.41213601  1  -1.134872  0  -0.302988  -0.495725  0  2.341653  0
O  O57  1  0.37678180  0.04928107  0.91213675  1  -1.135048  0  -0.302989  -0.49571  0  2.34164  0
O  O58  1  0.04951997  0.62462986  0.16198468  1  -1.134326  0  -0.303316  -0.496047  0  2.341708  0
O  O59  1  0.95047852  0.37536725  0.66197990  1  -1.134375  0  -0.303344  -0.4961  0  2.341734  0
O  O60  1  0.68787555  0.21546857  0.48154045  1  -1.147864  0  -0.322573  -0.522086  0  2.41764  0
O  O61  1  0.31212493  0.78453043  0.98154096  1  -1.147877  0  -0.322573  -0.522109  0  2.417727  0
O  O62  1  0.78453873  0.68934473  0.23118900  1  -1.14461  0  -0.322571  -0.521995  0  2.417319  0
O  O63  1  0.21545991  0.31065711  0.73118826  1  -1.144523  0  -0.322571  -0.521976  0  2.41729  0
