# generated using pymatgen
data_HoPH9C8NO9
_symmetry_space_group_name_H-M   'P 1'
_cell_length_a   9.54440549
_cell_length_b   10.46294202
_cell_length_c   15.46489753
_cell_angle_alpha   90.00016507
_cell_angle_beta   101.99347905
_cell_angle_gamma   90.00005471
_symmetry_Int_Tables_number   1
_chemical_formula_structural   HoPH9C8NO9
_chemical_formula_sum   'Ho4 P4 H36 C32 N4 O36'
_cell_volume   1510.65274570
_cell_formula_units_Z   4
loop_
 _symmetry_equiv_pos_site_id
 _symmetry_equiv_pos_as_xyz
  1  'x, y, z'
loop_
 _atom_site_type_symbol
 _atom_site_label
 _atom_site_symmetry_multiplicity
 _atom_site_fract_x
 _atom_site_fract_y
 _atom_site_fract_z
 _atom_site_occupancy
 _atom_site_hle17_bader_spin_density
 _atom_site_hle17_ddec_charge
 _atom_site_hle17_ddec_spin_density
 _atom_site_hle17_ddec_sum_bond_order
 _atom_site_hle17_magmom
 _atom_site_hse06_10hf_bader_spin_density
 _atom_site_hse06_10hf_ddec_charge
 _atom_site_hse06_10hf_ddec_spin_density
 _atom_site_hse06_10hf_ddec_sum_bond_order
 _atom_site_hse06_10hf_magmom
 _atom_site_hse06_bader_spin_density
 _atom_site_hse06_ddec_charge
 _atom_site_hse06_ddec_spin_density
 _atom_site_hse06_ddec_sum_bond_order
 _atom_site_hse06_magmom
 _atom_site_pbe_bader_spin_density
 _atom_site_pbe_cm5_charge
 _atom_site_pbe_ddec_charge
 _atom_site_pbe_ddec_spin_density
 _atom_site_pbe_ddec_sum_bond_order
 _atom_site_pbe_magmom
Ho  Ho0  1  0.21961846  0.10370217  0.39422712  1  0  2.247321  0  1.675063  0  0  2.103653  0  2.152947  0  0  2.232279  0  1.95799  0  0  1.524757  2.069019  0  2.182843  0
Ho  Ho1  1  0.28038570  0.60370435  0.10577844  1  0  2.247316  0  1.675156  0  0  2.103676  0  2.153004  0  0  2.232275  0  1.958094  0  0  1.524741  2.069038  0  2.182916  0
Ho  Ho2  1  0.78036280  0.89629733  0.60577226  1  0  2.247282  0  1.675138  0  0  2.103543  0  2.153163  0  0  2.232251  0  1.958072  0  0  1.524658  2.068849  0  2.18316  0
Ho  Ho3  1  0.71963944  0.39630375  0.89422999  1  0  2.247343  0  1.675161  0  0  2.103614  0  2.15315  0  0  2.232308  0  1.958084  0  0  1.524709  2.068934  0  2.183138  0
P  P4  1  0.16892643  0.85179923  0.23330493  1  0  1.60268  0  4.716179  0  0  1.452862  0  5.224263  0  0  1.503485  0  5.18838  0  0  0.380338  1.418383  0  5.252356  0
P  P5  1  0.33107500  0.35179565  0.26669752  1  0  1.602619  0  4.716061  0  0  1.45281  0  5.224139  0  0  1.503431  0  5.188262  0  0  0.380354  1.418328  0  5.252236  0
P  P6  1  0.83106983  0.14820314  0.76669644  1  0  1.602763  0  4.716111  0  0  1.452945  0  5.224177  0  0  1.503574  0  5.188298  0  0  0.380412  1.418468  0  5.252271  0
P  P7  1  0.66892986  0.64820003  0.73330240  1  0  1.602616  0  4.716278  0  0  1.452842  0  5.224327  0  0  1.50346  0  5.188455  0  0  0.380369  1.418356  0  5.252423  0
H  H8  1  0.33050527  0.86840032  0.92657363  1  0  0.129067  0  0.912794  0  0  0.139691  0  0.96725  0  0  0.144041  0  0.962403  0  0  0.138609  0.136618  0  0.97068  0
H  H9  1  0.16947490  0.36840055  0.57341656  1  0  0.129062  0  0.912813  0  0  0.139723  0  0.967212  0  0  0.144078  0  0.962361  0  0  0.138619  0.13661  0  0.970693  0
H  H10  1  0.66948037  0.13160492  0.07341857  1  0  0.129075  0  0.912767  0  0  0.139709  0  0.967197  0  0  0.144063  0  0.962346  0  0  0.138608  0.136602  0  0.970672  0
H  H11  1  0.83050864  0.63159991  0.42657213  1  0  0.128999  0  0.912775  0  0  0.139638  0  0.967218  0  0  0.14399  0  0.962367  0  0  0.13858  0.136545  0  0.970674  0
H  H12  1  0.39679135  0.10305250  0.92288899  1  0  0.107332  0  0.937449  0  0  0.118696  0  0.991303  0  0  0.122061  0  0.990494  0  0  0.113436  0.116191  0  0.99264  0
H  H13  1  0.10319476  0.60305345  0.57710277  1  0  0.107413  0  0.937354  0  0  0.118725  0  0.991244  0  0  0.122095  0  0.99043  0  0  0.113435  0.116218  0  0.992583  0
H  H14  1  0.60319320  0.89695273  0.07710501  1  0  0.10737  0  0.937342  0  0  0.118699  0  0.991221  0  0  0.122066  0  0.990403  0  0  0.113421  0.116192  0  0.992561  0
H  H15  1  0.89679203  0.39694796  0.42288376  1  0  0.107262  0  0.937387  0  0  0.118589  0  0.991303  0  0  0.121942  0  0.990493  0  0  0.113419  0.116084  0  0.992642  0
H  H16  1  0.29680421  0.25644047  0.02093163  1  0  0.116107  0  0.955376  0  0  0.123188  0  1.018629  0  0  0.126804  0  1.015389  0  0  0.113794  0.121  0  1.020028  0
H  H17  1  0.20319175  0.75644036  0.47906604  1  0  0.116074  0  0.955397  0  0  0.123221  0  1.018571  0  0  0.126836  0  1.015329  0  0  0.113782  0.121031  0  1.019971  0
H  H18  1  0.70318672  0.74356094  0.97906710  1  0  0.116045  0  0.955494  0  0  0.123161  0  1.018701  0  0  0.126774  0  1.015471  0  0  0.113763  0.120974  0  1.020088  0
H  H19  1  0.79680357  0.24355819  0.52092487  1  0  0.116062  0  0.95539  0  0  0.123181  0  1.018602  0  0  0.126791  0  1.015374  0  0  0.113784  0.120997  0  1.019986  0
H  H20  1  0.14516137  0.16873011  0.12046243  1  0  0.130898  0  0.92021  0  0  0.141403  0  0.974688  0  0  0.145273  0  0.972682  0  0  0.122441  0.138916  0  0.975557  0
H  H21  1  0.35483868  0.66872970  0.37953819  1  0  0.130896  0  0.920176  0  0  0.141403  0  0.974658  0  0  0.145274  0  0.972651  0  0  0.12244  0.138915  0  0.975527  0
H  H22  1  0.85483382  0.83126653  0.87953880  1  0  0.130921  0  0.920234  0  0  0.141427  0  0.974702  0  0  0.145291  0  0.972697  0  0  0.12245  0.138938  0  0.975573  0
H  H23  1  0.64516729  0.33126694  0.62045865  1  0  0.13085  0  0.920254  0  0  0.141356  0  0.974697  0  0  0.145219  0  0.972694  0  0  0.122411  0.138876  0  0.975569  0
H  H24  1  0.99847500  0.83915467  0.09690295  1  0  0.16547  0  0.952079  0  0  0.171958  0  1.017122  0  0  0.175552  0  1.015768  0  0  0.119522  0.169365  0  1.018471  0
H  H25  1  0.50152392  0.33915329  0.40309788  1  0  0.165422  0  0.952156  0  0  0.171916  0  1.017187  0  0  0.175509  0  1.015834  0  0  0.119508  0.169327  0  1.018532  0
H  H26  1  0.00152666  0.16083910  0.90309591  1  0  0.165497  0  0.952137  0  0  0.171982  0  1.017153  0  0  0.175576  0  1.015804  0  0  0.119553  0.169395  0  1.018495  0
H  H27  1  0.49847447  0.66083761  0.59690507  1  0  0.165444  0  0.952072  0  0  0.17194  0  1.017089  0  0  0.175527  0  1.015753  0  0  0.119547  0.16935  0  1.018431  0
H  H28  1  0.99157631  0.99075937  0.15145216  1  0  0.154007  0  0.935983  0  0  0.166356  0  0.992191  0  0  0.168921  0  0.991495  0  0  0.114813  0.164632  0  0.992634  0
H  H29  1  0.50842503  0.49075681  0.34854863  1  0  0.154012  0  0.936038  0  0  0.166362  0  0.992244  0  0  0.168928  0  0.991544  0  0  0.114816  0.164638  0  0.992688  0
H  H30  1  0.00841784  0.00923535  0.84854635  1  0  0.154036  0  0.935996  0  0  0.16636  0  0.992241  0  0  0.168929  0  0.991543  0  0  0.114799  0.164637  0  0.992684  0
H  H31  1  0.49158518  0.50923313  0.65145265  1  0  0.154006  0  0.935989  0  0  0.16633  0  0.992242  0  0  0.168895  0  0.991546  0  0  0.114797  0.164607  0  0.992687  0
H  H32  1  0.04189845  0.82608673  0.33153112  1  0  0.428255  0  0.874703  0  0  0.396868  0  0.938748  0  0  0.40912  0  0.920957  0  0  0.311884  0.388378  0  0.95107  0
H  H33  1  0.45810399  0.32609144  0.16847271  1  0  0.428297  0  0.87465  0  0  0.396894  0  0.938713  0  0  0.409148  0  0.920921  0  0  0.311916  0.388407  0  0.951035  0
H  H34  1  0.95809460  0.17391086  0.66846918  1  0  0.428334  0  0.874608  0  0  0.396946  0  0.938651  0  0  0.409203  0  0.920854  0  0  0.311913  0.388454  0  0.950977  0
H  H35  1  0.54190513  0.67391475  0.83153036  1  0  0.428322  0  0.874644  0  0  0.39694  0  0.938677  0  0  0.409195  0  0.920882  0  0  0.311915  0.388445  0  0.951007  0
H  H36  1  0.01513379  0.23123477  0.26767738  1  0  0.448531  0  0.820002  0  0  0.425568  0  0.871273  0  0  0.435718  0  0.856583  0  0  0.323318  0.418367  0  0.881941  0
H  H37  1  0.48487488  0.73123863  0.23232903  1  0  0.448562  0  0.820023  0  0  0.425615  0  0.871214  0  0  0.435766  0  0.856523  0  0  0.323374  0.418413  0  0.881882  0
H  H38  1  0.98486252  0.76876473  0.73232012  1  0  0.448559  0  0.820062  0  0  0.425599  0  0.871252  0  0  0.435746  0  0.856567  0  0  0.323323  0.418397  0  0.881922  0
H  H39  1  0.51514484  0.26877330  0.76768386  1  0  0.448493  0  0.820072  0  0  0.425477  0  0.871437  0  0  0.435633  0  0.856738  0  0  0.323196  0.418273  0  0.882111  0
H  H40  1  0.89346563  0.17128748  0.31136950  1  0  0.446242  0  0.800044  0  0  0.434346  0  0.838849  0  0  0.442229  0  0.827875  0  0  0.341021  0.428968  0  0.846563  0
H  H41  1  0.60654253  0.67128509  0.18864064  1  0  0.446144  0  0.800049  0  0  0.434239  0  0.838965  0  0  0.442124  0  0.827988  0  0  0.340995  0.428863  0  0.846676  0
H  H42  1  0.10652747  0.82871011  0.68862758  1  0  0.446123  0  0.800071  0  0  0.434258  0  0.838939  0  0  0.442143  0  0.827964  0  0  0.341004  0.428882  0  0.846652  0
H  H43  1  0.39348033  0.32871537  0.81137914  1  0  0.446144  0  0.799985  0  0  0.434287  0  0.838883  0  0  0.442171  0  0.827909  0  0  0.341019  0.428909  0  0.846598  0
C  C44  1  0.29246042  0.94200110  0.96568434  1  0  0.005447  0  3.608724  0  0  -0.038575  0  3.87239  0  0  -0.030802  0  3.883793  0  0  0.041499  -0.043584  0  3.865777  0
C  C45  1  0.20752950  0.44199833  0.53430923  1  0  0.005468  0  3.60878  0  0  -0.038566  0  3.872388  0  0  -0.030804  0  3.883804  0  0  0.041509  -0.043542  0  3.865787  0
C  C46  1  0.70753056  0.05800318  0.03430987  1  0  0.005306  0  3.60872  0  0  -0.0387  0  3.872335  0  0  -0.030939  0  3.883753  0  0  0.041439  -0.04368  0  3.865734  0
C  C47  1  0.79245938  0.55800022  0.46568146  1  0  0.00556  0  3.608577  0  0  -0.038463  0  3.872218  0  0  -0.030695  0  3.883622  0  0  0.04152  -0.043454  0  3.865611  0
C  C48  1  0.32663052  0.07044319  0.96557181  1  0  -0.107389  0  3.784772  0  0  -0.122303  0  4.047309  0  0  -0.128886  0  4.067719  0  0  -0.081007  -0.118152  0  4.03539  0
C  C49  1  0.17335871  0.57044211  0.53442289  1  0  -0.107506  0  3.784649  0  0  -0.122381  0  4.047179  0  0  -0.128964  0  4.067595  0  0  -0.081022  -0.118227  0  4.03525  0
C  C50  1  0.67335830  0.92956205  0.03442340  1  0  -0.107403  0  3.784702  0  0  -0.122297  0  4.047202  0  0  -0.128876  0  4.067617  0  0  -0.081003  -0.118145  0  4.035274  0
C  C51  1  0.82662804  0.42955644  0.46556688  1  0  -0.107345  0  3.784481  0  0  -0.12225  0  4.047066  0  0  -0.128812  0  4.067461  0  0  -0.081037  -0.1181  0  4.035143  0
C  C52  1  0.27292764  0.15484284  0.02064062  1  0  -0.002171  0  3.693119  0  0  -0.030261  0  3.958759  0  0  -0.02404  0  3.972225  0  0  -0.068996  -0.034103  0  3.948872  0
C  C53  1  0.22706813  0.65484466  0.47935747  1  0  -0.002105  0  3.692974  0  0  -0.030235  0  3.958577  0  0  -0.024014  0  3.972041  0  0  -0.068941  -0.034078  0  3.948695  0
C  C54  1  0.72706651  0.84515666  0.97935853  1  0  -0.00209  0  3.693142  0  0  -0.030182  0  3.958712  0  0  -0.023964  0  3.972175  0  0  -0.068934  -0.03402  0  3.948831  0
C  C55  1  0.77292931  0.34515389  0.52063565  1  0  -0.002064  0  3.69305  0  0  -0.0302  0  3.958628  0  0  -0.02398  0  3.972086  0  0  -0.068939  -0.034042  0  3.948754  0
C  C56  1  0.18705051  0.10640148  0.07545300  1  0  -0.118437  0  3.662782  0  0  -0.140683  0  3.923948  0  0  -0.145706  0  3.939966  0  0  -0.066988  -0.136835  0  3.911997  0
C  C57  1  0.31294943  0.60640027  0.42454749  1  0  -0.118406  0  3.662658  0  0  -0.140666  0  3.923854  0  0  -0.145687  0  3.939869  0  0  -0.066992  -0.136817  0  3.911903  0
C  C58  1  0.81294577  0.89359706  0.92454708  1  0  -0.118491  0  3.662716  0  0  -0.140746  0  3.923883  0  0  -0.145761  0  3.939893  0  0  -0.067022  -0.136901  0  3.911936  0
C  C59  1  0.68705228  0.39359541  0.57544749  1  0  -0.118495  0  3.662848  0  0  -0.140651  0  3.923898  0  0  -0.145666  0  3.939915  0  0  -0.066949  -0.136816  0  3.911958  0
C  C60  1  0.15262799  0.97696636  0.07497656  1  0  0.211551  0  3.6466  0  0  0.20205  0  3.899722  0  0  0.211285  0  3.917268  0  0  0.123017  0.195991  0  3.888091  0
C  C61  1  0.34737477  0.47696537  0.42502372  1  0  0.211527  0  3.646667  0  0  0.202013  0  3.899812  0  0  0.211247  0  3.917357  0  0  0.122995  0.195954  0  3.888183  0
C  C62  1  0.84737149  0.02303410  0.92502459  1  0  0.211543  0  3.646586  0  0  0.202033  0  3.899715  0  0  0.211273  0  3.917256  0  0  0.122967  0.195978  0  3.888088  0
C  C63  1  0.65262906  0.52303222  0.57497283  1  0  0.211539  0  3.646622  0  0  0.201993  0  3.899741  0  0  0.211228  0  3.917285  0  0  0.12296  0.195934  0  3.888117  0
C  C64  1  0.06190475  0.91841121  0.13155330  1  0  -0.537372  0  3.716164  0  0  -0.558935  0  3.954808  0  0  -0.569381  0  3.959435  0  0  -0.161053  -0.551671  0  3.951921  0
C  C65  1  0.43809787  0.41840910  0.36844944  1  0  -0.537406  0  3.716275  0  0  -0.558962  0  3.954893  0  0  -0.569406  0  3.959515  0  0  -0.161074  -0.5517  0  3.952011  0
C  C66  1  0.93809689  0.08158734  0.86844685  1  0  -0.537495  0  3.716209  0  0  -0.559032  0  3.954878  0  0  -0.569486  0  3.959502  0  0  -0.161092  -0.551777  0  3.952  0
C  C67  1  0.56190588  0.58158371  0.63155357  1  0  -0.537301  0  3.716037  0  0  -0.558857  0  3.954746  0  0  -0.569299  0  3.959366  0  0  -0.161025  -0.551593  0  3.951862  0
C  C68  1  0.54128582  0.03311620  0.46776567  1  0  0.564786  0  3.934207  0  0  0.524587  0  4.229392  0  0  0.554858  0  4.227489  0  0  0.212186  0.504048  0  4.235455  0
C  C69  1  0.95871793  0.53312587  0.03223391  1  0  0.564684  0  3.93407  0  0  0.524447  0  4.229325  0  0  0.554712  0  4.227433  0  0  0.212138  0.503911  0  4.235388  0
C  C70  1  0.45868276  0.96687375  0.53221845  1  0  0.565149  0  3.933887  0  0  0.525044  0  4.228937  0  0  0.555302  0  4.227054  0  0  0.21252  0.504512  0  4.234987  0
C  C71  1  0.04131893  0.46687937  0.96778126  1  0  0.565038  0  3.934236  0  0  0.52492  0  4.229327  0  0  0.55518  0  4.227446  0  0  0.212398  0.504383  0  4.235387  0
C  C72  1  0.00584238  0.06490160  0.52447236  1  0  0.583876  0  3.907204  0  0  0.537866  0  4.206849  0  0  0.568669  0  4.202595  0  0  0.223237  0.517415  0  4.213013  0
C  C73  1  0.49416496  0.56491797  0.97553184  1  0  0.583828  0  3.906806  0  0  0.537847  0  4.206435  0  0  0.568648  0  4.202187  0  0  0.223342  0.517398  0  4.212594  0
C  C74  1  0.99413997  0.93509312  0.47552587  1  0  0.583904  0  3.907075  0  0  0.537935  0  4.206673  0  0  0.568737  0  4.20242  0  0  0.223279  0.517485  0  4.212836  0
C  C75  1  0.50586120  0.43510160  0.02448061  1  0  0.583946  0  3.906842  0  0  0.537939  0  4.206493  0  0  0.56874  0  4.20224  0  0  0.223209  0.517491  0  4.212656  0
N  N76  1  0.20676406  0.89671063  0.01922526  1  0  0.23674  0  3.672532  0  0  0.292234  0  3.929939  0  0  0.290722  0  3.955167  0  0  -0.106565  0.292328  0  3.915812  0
N  N77  1  0.29323322  0.39671079  0.48077285  1  0  0.236764  0  3.672705  0  0  0.292246  0  3.930131  0  0  0.290736  0  3.955364  0  0  -0.106562  0.292343  0  3.915993  0
N  N78  1  0.79323441  0.10328791  0.98077124  1  0  0.236769  0  3.672742  0  0  0.292241  0  3.930167  0  0  0.29073  0  3.955402  0  0  -0.106535  0.292336  0  3.916029  0
N  N79  1  0.70676204  0.60328775  0.51922321  1  0  0.236589  0  3.67298  0  0  0.292064  0  3.930419  0  0  0.290552  0  3.955658  0  0  -0.10666  0.292159  0  3.916287  0
O  O80  1  0.23805153  0.96033100  0.29178593  1  0  -0.957785  0  1.98273  0  0  -0.886362  0  2.257654  0  0  -0.925946  0  2.232357  0  0  -0.485107  -0.867459  0  2.270025  0
O  O81  1  0.26194688  0.46032997  0.20821633  1  0  -0.957789  0  1.98269  0  0  -0.886377  0  2.257615  0  0  -0.925959  0  2.232325  0  0  -0.485113  -0.867476  0  2.269988  0
O  O82  1  0.76193294  0.03967424  0.70821452  1  0  -0.957859  0  1.982706  0  0  -0.886452  0  2.257675  0  0  -0.92605  0  2.232367  0  0  -0.48521  -0.867544  0  2.270055  0
O  O83  1  0.73806545  0.53967431  0.79178653  1  0  -0.957834  0  1.982711  0  0  -0.886412  0  2.257626  0  0  -0.926003  0  2.232322  0  0  -0.485191  -0.867505  0  2.270008  0
O  O84  1  0.05813916  0.77676398  0.27814088  1  0  -0.733029  0  1.933541  0  0  -0.668565  0  2.137211  0  0  -0.688057  0  2.110527  0  0  -0.386075  -0.654599  0  2.155396  0
O  O85  1  0.44186111  0.27676316  0.22185739  1  0  -0.733046  0  1.933428  0  0  -0.668579  0  2.137133  0  0  -0.688072  0  2.110446  0  0  -0.386114  -0.654614  0  2.155315  0
O  O86  1  0.94185818  0.22323457  0.72185999  1  0  -0.733107  0  1.933457  0  0  -0.668641  0  2.137138  0  0  -0.688136  0  2.110448  0  0  -0.386071  -0.654674  0  2.155326  0
O  O87  1  0.55813954  0.72323347  0.77813551  1  0  -0.733039  0  1.933548  0  0  -0.668629  0  2.137254  0  0  -0.688122  0  2.110565  0  0  -0.386068  -0.65466  0  2.155445  0
O  O88  1  0.27605878  0.75852240  0.20780535  1  0  -0.969748  0  1.990985  0  0  -0.893322  0  2.26253  0  0  -0.931468  0  2.23674  0  0  -0.468292  -0.874547  0  2.27671  0
O  O89  1  0.22394463  0.25851787  0.29219718  1  0  -0.969638  0  1.99096  0  0  -0.8932  0  2.262501  0  0  -0.93134  0  2.23669  0  0  -0.468261  -0.874423  0  2.276681  0
O  O90  1  0.72394926  0.24148475  0.79219823  1  0  -0.969725  0  1.990976  0  0  -0.893248  0  2.262546  0  0  -0.931396  0  2.236716  0  0  -0.468281  -0.874465  0  2.276729  0
O  O91  1  0.77605811  0.74147876  0.70780053  1  0  -0.96966  0  1.991009  0  0  -0.893219  0  2.262552  0  0  -0.931377  0  2.236752  0  0  -0.468306  -0.874435  0  2.276731  0
O  O92  1  0.17191413  0.77463022  0.01520444  1  0  -0.631159  0  1.848162  0  0  -0.598415  0  2.094191  0  0  -0.633732  0  2.093261  0  0  -0.310223  -0.581947  0  2.092698  0
O  O93  1  0.32808398  0.27463234  0.48479484  1  0  -0.631188  0  1.848282  0  0  -0.598436  0  2.094317  0  0  -0.633758  0  2.093388  0  0  -0.310234  -0.581965  0  2.092817  0
O  O94  1  0.82808967  0.22536641  0.98479470  1  0  -0.631066  0  1.848276  0  0  -0.598293  0  2.094316  0  0  -0.633624  0  2.093386  0  0  -0.310156  -0.581819  0  2.092822  0
O  O95  1  0.67190913  0.72536429  0.51520094  1  0  -0.631025  0  1.848431  0  0  -0.598242  0  2.09445  0  0  -0.633573  0  2.093522  0  0  -0.310118  -0.581767  0  2.092955  0
O  O96  1  0.67686759  0.02092470  0.48580551  1  0  -0.690144  0  2.039939  0  0  -0.647937  0  2.285657  0  0  -0.682526  0  2.271137  0  0  -0.399825  -0.631105  0  2.291462  0
O  O97  1  0.82313615  0.52094086  0.01419275  1  0  -0.690182  0  2.040001  0  0  -0.647966  0  2.285739  0  0  -0.682552  0  2.271227  0  0  -0.399869  -0.631138  0  2.291544  0
O  O98  1  0.32311166  0.97905473  0.51418326  1  0  -0.690286  0  2.040209  0  0  -0.648121  0  2.28589  0  0  -0.682691  0  2.271378  0  0  -0.400032  -0.6313  0  2.291693  0
O  O99  1  0.17689217  0.47906437  0.98581870  1  0  -0.690315  0  2.040298  0  0  -0.648133  0  2.285972  0  0  -0.682702  0  2.271461  0  0  -0.400021  -0.631309  0  2.291774  0
O  O100  1  0.46822023  0.09353976  0.40360106  1  0  -0.626564  0  2.050298  0  0  -0.582703  0  2.289767  0  0  -0.613846  0  2.27607  0  0  -0.368018  -0.567599  0  2.296705  0
O  O101  1  0.03178607  0.59354551  0.09640348  1  0  -0.62644  0  2.050074  0  0  -0.582557  0  2.289553  0  0  -0.613694  0  2.275859  0  0  -0.367933  -0.567453  0  2.29649  0
O  O102  1  0.53176215  0.90644731  0.59639524  1  0  -0.626755  0  2.049805  0  0  -0.582903  0  2.289227  0  0  -0.614059  0  2.275536  0  0  -0.368092  -0.567789  0  2.296157  0
O  O103  1  0.96824118  0.40645399  0.90360783  1  0  -0.626605  0  2.05004  0  0  -0.582743  0  2.289462  0  0  -0.613901  0  2.275777  0  0  -0.367969  -0.567632  0  2.296398  0
O  O104  1  0.06592707  0.15616079  0.49337305  1  0  -0.669408  0  2.047217  0  0  -0.63015  0  2.296966  0  0  -0.662592  0  2.283729  0  0  -0.364942  -0.614655  0  2.303257  0
O  O105  1  0.43406966  0.65617415  0.00663357  1  0  -0.669543  0  2.046847  0  0  -0.630305  0  2.296597  0  0  -0.662743  0  2.283364  0  0  -0.365065  -0.614815  0  2.302896  0
O  O106  1  0.93405299  0.84382629  0.50663716  1  0  -0.669605  0  2.046756  0  0  -0.630349  0  2.29648  0  0  -0.662809  0  2.283242  0  0  -0.365084  -0.614846  0  2.302775  0
O  O107  1  0.56595878  0.34384255  0.99336884  1  0  -0.669605  0  2.046719  0  0  -0.630339  0  2.296468  0  0  -0.662799  0  2.283233  0  0  -0.365058  -0.614836  0  2.302762  0
O  O108  1  0.95148860  0.06719119  0.59280104  1  0  -0.672322  0  2.150034  0  0  -0.611358  0  2.38392  0  0  -0.646405  0  2.372907  0  0  -0.341924  -0.593383  0  2.389493  0
O  O109  1  0.54851834  0.56720688  0.90720702  1  0  -0.672192  0  2.150133  0  0  -0.61124  0  2.384011  0  0  -0.646282  0  2.373001  0  0  -0.34194  -0.593267  0  2.389586  0
O  O110  1  0.04848398  0.93280067  0.40720624  1  0  -0.672143  0  2.150383  0  0  -0.611213  0  2.384267  0  0  -0.64624  0  2.373252  0  0  -0.341811  -0.593246  0  2.38984  0
O  O111  1  0.45152712  0.43281747  0.09280670  1  0  -0.672166  0  2.150349  0  0  -0.611212  0  2.384246  0  0  -0.646238  0  2.373229  0  0  -0.341791  -0.593246  0  2.389823  0
O  O112  1  0.98169587  0.15282995  0.29174473  1  0  -0.862791  0  1.816711  0  0  -0.821798  0  1.975785  0  0  -0.847684  0  1.941194  0  0  -0.594821  -0.810002  0  1.995682  0
O  O113  1  0.51830908  0.65283235  0.20826171  1  0  -0.862705  0  1.816739  0  0  -0.821713  0  1.975848  0  0  -0.847595  0  1.941259  0  0  -0.594845  -0.809918  0  1.995744  0
O  O114  1  0.01830253  0.84717146  0.70825693  1  0  -0.86271  0  1.81674  0  0  -0.821737  0  1.975801  0  0  -0.847629  0  1.941209  0  0  -0.594824  -0.809938  0  1.9957  0
O  O115  1  0.48170105  0.34717767  0.79174667  1  0  -0.862631  0  1.816624  0  0  -0.821646  0  1.975724  0  0  -0.847542  0  1.941134  0  0  -0.594703  -0.809842  0  1.995624  0
